cim/raw/ieee-118-bus-v4.raw
 0,    100.00, 33, 0, 0, 60.00       / October 01, 2013 18:46:48
 08/25/93 UW ARCHIVE           100.0  1961 W IEEE 118 Bus Test Case
0 / END OF SYSTEM-WIDE DATA, BEGIN BUS DATA
    1,'Riversde    ', 138.0000,2,   1,   1,   1,0.95500,  10.9828,1.05000,0.95000,1.10000,0.90000
    2,'Pokagon     ', 138.0000,1,   1,   1,   1,0.97139,  11.5228,1.05000,0.95000,1.10000,0.90000
    3,'HickryCk    ', 138.0000,1,   1,   1,   1,0.96769,  11.8662,1.05000,0.95000,1.10000,0.90000
    4,'NwCarlsl    ', 138.0000,2,   1,   1,   1,0.99800,  15.5836,1.05000,0.95000,1.10000,0.90000
    5,'Olive       ', 138.0000,1,   1,   1,   1,1.00198,  16.0287,1.05000,0.95000,1.10000,0.90000
    6,'Kankakee    ', 138.0000,2,   1,   1,   1,0.99000,  13.3018,1.05000,0.95000,1.10000,0.90000
    7,'JacksnRd    ', 138.0000,1,   1,   1,   1,0.98933,  12.8575,1.05000,0.95000,1.10000,0.90000
    8,'Olive       ', 345.0000,2,   1,   1,   1,1.01500,  21.0492,1.05000,0.95000,1.10000,0.90000
    9,'Bequine     ', 345.0000,1,   1,   1,   1,1.04292,  28.3033,1.05000,0.95000,1.10000,0.90000
   10,'Breed       ', 345.0000,2,   1,   1,   1,1.05000,  35.8842,1.05000,0.95000,1.10000,0.90000
   11,'SouthBnd    ', 138.0000,1,   1,   1,   1,0.98509,  13.0161,1.05000,0.95000,1.10000,0.90000
   12,'TwinBrch    ', 138.0000,2,   1,   1,   1,0.99000,  12.4993,1.05000,0.95000,1.10000,0.90000
   13,'Concord     ', 138.0000,1,   1,   1,   1,0.96830,  11.6412,1.05000,0.95000,1.10000,0.90000
   14,'GoshenJt    ', 138.0000,1,   1,   1,   1,0.98359,  11.7831,1.05000,0.95000,1.10000,0.90000
   15,'FtWayne     ', 138.0000,2,   1,   1,   1,0.97000,  11.4894,1.05000,0.95000,1.10000,0.90000
   16,'N. E.       ', 138.0000,1,   1,   1,   1,0.98391,  12.1978,1.05000,0.95000,1.10000,0.90000
   17,'Sorenson    ', 138.0000,1,   1,   1,   1,0.99513,  14.0056,1.05000,0.95000,1.10000,0.90000
   18,'McKinley    ', 138.0000,2,   1,   1,   1,0.97300,  11.7920,1.05000,0.95000,1.10000,0.90000
   19,'Lincoln     ', 138.0000,2,   1,   1,   1,0.96343,  11.3074,1.05000,0.95000,1.10000,0.90000
   20,'Adams       ', 138.0000,1,   1,   1,   1,0.95806,  12.1872,1.05000,0.95000,1.10000,0.90000
   21,'Jay         ', 138.0000,1,   1,   1,   1,0.95862,  13.7751,1.05000,0.95000,1.10000,0.90000
   22,'Randolph    ', 138.0000,1,   1,   1,   1,0.96965,  16.3296,1.05000,0.95000,1.10000,0.90000
   23,'CollCrnr    ', 138.0000,1,   1,   1,   1,0.99966,  21.2503,1.05000,0.95000,1.10000,0.90000
   24,'Trenton     ', 138.0000,2,   1,   1,   1,0.99200,  21.1181,1.05000,0.95000,1.10000,0.90000
   25,'TannrsCk    ', 138.0000,2,   1,   1,   1,1.05000,  28.1844,1.05000,0.95000,1.10000,0.90000
   26,'TannrsCk    ', 345.0000,2,   1,   1,   1,1.01500,  29.9650,1.05000,0.95000,1.10000,0.90000
   27,'Madison     ', 138.0000,2,   1,   1,   1,0.96800,  15.6126,1.05000,0.95000,1.10000,0.90000
   28,'Mullin      ', 138.0000,1,   1,   1,   1,0.96157,  13.8880,1.05000,0.95000,1.10000,0.90000
   29,'Grant       ', 138.0000,1,   1,   1,   1,0.96322,  12.8956,1.05000,0.95000,1.10000,0.90000
   30,'Sorenson    ', 345.0000,1,   1,   1,   1,0.98552,  19.0402,1.05000,0.95000,1.10000,0.90000
   31,'DeerCrk     ', 138.0000,2,   1,   1,   1,0.96700,  13.0125,1.05000,0.95000,1.10000,0.90000
   32,'Delaware    ', 138.0000,2,   1,   1,   1,0.96359,  15.0600,1.05000,0.95000,1.10000,0.90000
   33,'Haviland    ', 138.0000,1,   1,   1,   1,0.97156,  10.8645,1.05000,0.95000,1.10000,0.90000
   34,'Rockhill    ', 138.0000,2,   1,   1,   1,0.98586,  11.5065,1.05000,0.95000,1.10000,0.90000
   35,'WestLima    ', 138.0000,1,   1,   1,   1,0.98068,  11.0793,1.05000,0.95000,1.10000,0.90000
   36,'Sterling    ', 138.0000,2,   1,   1,   1,0.98000,  11.0837,1.05000,0.95000,1.10000,0.90000
   37,'EastLima    ', 138.0000,1,   1,   1,   1,0.99198,  11.9703,1.05000,0.95000,1.10000,0.90000
   38,'EastLima    ', 345.0000,1,   1,   1,   1,0.96198,  17.1072,1.05000,0.95000,1.10000,0.90000
   39,'NwLibrty    ', 138.0000,1,   1,   1,   1,0.97045,   8.5978,1.05000,0.95000,1.10000,0.90000
   40,'West End    ', 138.0000,2,   1,   1,   1,0.97000,   7.5240,1.05000,0.95000,1.10000,0.90000
   41,'S.Tiffin    ', 138.0000,1,   1,   1,   1,0.96683,   7.0779,1.05000,0.95000,1.10000,0.90000
   42,'Howard      ', 138.0000,2,   1,   1,   1,0.98500,   8.6734,1.05000,0.95000,1.10000,0.90000
   43,'S.Kenton    ', 138.0000,1,   1,   1,   1,0.97848,  11.4604,1.05000,0.95000,1.10000,0.90000
   44,'WMVernon    ', 138.0000,1,   1,   1,   1,0.98501,  13.9460,1.05000,0.95000,1.10000,0.90000
   45,'N.Newark    ', 138.0000,1,   1,   1,   1,0.98665,  15.7768,1.05000,0.95000,1.10000,0.90000
   46,'W.Lancst    ', 138.0000,2,   1,   1,   1,1.00500,  18.5827,1.05000,0.95000,1.10000,0.90000
   47,'Crooksvl    ', 138.0000,1,   1,   1,   1,1.01705,  20.8051,1.05000,0.95000,1.10000,0.90000
   48,'Zanesvll    ', 138.0000,1,   1,   1,   1,1.02063,  20.0253,1.05000,0.95000,1.10000,0.90000
   49,'Philo       ', 138.0000,2,   1,   1,   1,1.02500,  21.0284,1.05000,0.95000,1.10000,0.90000
   50,'WCambrdg    ', 138.0000,1,   1,   1,   1,1.00108,  18.9894,1.05000,0.95000,1.10000,0.90000
   51,'Newcmrst    ', 138.0000,1,   1,   1,   1,0.96688,  16.3703,1.05000,0.95000,1.10000,0.90000
   52,'SCoshoct    ', 138.0000,1,   1,   1,   1,0.95682,  15.4169,1.05000,0.95000,1.10000,0.90000
   53,'Wooster     ', 138.0000,1,   1,   1,   1,0.94598,  14.4419,1.05000,0.95000,1.10000,0.90000
   54,'Torrey      ', 138.0000,2,   1,   1,   1,0.95500,  15.3537,1.05000,0.95000,1.10000,0.90000
   55,'Wagenhls    ', 138.0000,2,   1,   1,   1,0.95200,  15.0637,1.05000,0.95000,1.10000,0.90000
   56,'Sunnysde    ', 138.0000,2,   1,   1,   1,0.95400,  15.2504,1.05000,0.95000,1.10000,0.90000
   57,'WNwPhil1    ', 138.0000,1,   1,   1,   1,0.97058,  16.4552,1.05000,0.95000,1.10000,0.90000
   58,'WNwPhil2    ', 138.0000,1,   1,   1,   1,0.95904,  15.5984,1.05000,0.95000,1.10000,0.90000
   59,'Tidd        ', 138.0000,2,   1,   1,   1,0.98500,  19.4530,1.05000,0.95000,1.10000,0.90000
   60,'SWKammer    ', 138.0000,1,   1,   1,   1,0.99316,  23.2343,1.05000,0.95000,1.10000,0.90000
   61,'W.Kammer    ', 138.0000,2,   1,   1,   1,0.99500,  24.1257,1.05000,0.95000,1.10000,0.90000
   62,'Natrium     ', 138.0000,2,   1,   1,   1,0.99800,  23.5091,1.05000,0.95000,1.10000,0.90000
   63,'Tidd        ', 345.0000,1,   1,   1,   1,0.96874,  22.8316,1.05000,0.95000,1.10000,0.90000
   64,'Kammer      ', 345.0000,1,   1,   1,   1,0.98374,  24.5973,1.05000,0.95000,1.10000,0.90000
   65,'Muskngum    ', 345.0000,2,   1,   1,   1,1.00500,  27.7224,1.05000,0.95000,1.10000,0.90000
   66,'Muskngum    ', 138.0000,2,   1,   1,   1,1.05000,  27.5634,1.05000,0.95000,1.10000,0.90000
   67,'Summerfl    ', 138.0000,1,   1,   1,   1,1.01968,  24.9235,1.05000,0.95000,1.10000,0.90000
   68,'Sporn       ', 345.0000,1,   1,   1,   1,1.00325,  27.6013,1.05000,0.95000,1.10000,0.90000
   69,'Sporn       ', 138.0000,3,   1,   1,   1,1.03500,  30.0000,1.05000,0.95000,1.10000,0.90000
   70,'Portsmth    ', 138.0000,2,   1,   1,   1,0.98400,  22.6205,1.05000,0.95000,1.10000,0.90000
   71,'NPortsmt    ', 138.0000,1,   1,   1,   1,0.98684,  22.2096,1.05000,0.95000,1.10000,0.90000
   72,'Hillsbro    ', 138.0000,2,   1,   1,   1,0.98000,  21.1120,1.05000,0.95000,1.10000,0.90000
   73,'Sargents    ', 138.0000,2,   1,   1,   1,0.99100,  21.9981,1.05000,0.95000,1.10000,0.90000
   74,'Bellefnt    ', 138.0000,2,   1,   1,   1,0.95800,  21.6718,1.05000,0.95000,1.10000,0.90000
   75,'SthPoint    ', 138.0000,1,   1,   1,   1,0.96733,  22.9337,1.05000,0.95000,1.10000,0.90000
   76,'Darrah      ', 138.0000,2,   1,   1,   1,0.94300,  21.8042,1.05000,0.95000,1.10000,0.90000
   77,'Turner      ', 138.0000,2,   1,   1,   1,1.00600,  26.7587,1.05000,0.95000,1.10000,0.90000
   78,'Chemical    ', 138.0000,1,   1,   1,   1,1.00342,  26.4549,1.05000,0.95000,1.10000,0.90000
   79,'CapitlHl    ', 138.0000,1,   1,   1,   1,1.00922,  26.7541,1.05000,0.95000,1.10000,0.90000
   80,'CabinCrk    ', 138.0000,2,   1,   1,   1,1.04000,  28.9999,1.05000,0.95000,1.10000,0.90000
   81,'Kanawha     ', 345.0000,1,   1,   1,   1,0.99681,  28.1508,1.05000,0.95000,1.10000,0.90000
   82,'Logan       ', 138.0000,1,   1,   1,   1,0.98874,  27.2804,1.05000,0.95000,1.10000,0.90000
   83,'Sprigg      ', 138.0000,1,   1,   1,   1,0.98452,  28.4707,1.05000,0.95000,1.10000,0.90000
   84,'BetsyLne    ', 138.0000,1,   1,   1,   1,0.97975,  31.0046,1.05000,0.95000,1.10000,0.90000
   85,'BeaverCk    ', 138.0000,2,   1,   1,   1,0.98500,  32.5588,1.05000,0.95000,1.10000,0.90000
   86,'Hazard      ', 138.0000,1,   1,   1,   1,0.98669,  31.1894,1.05000,0.95000,1.10000,0.90000
   87,'Pinevlle    ', 138.0000,2,   1,   1,   1,1.01500,  31.4486,1.05000,0.95000,1.10000,0.90000
   88,'Fremont     ', 138.0000,1,   1,   1,   1,0.98746,  35.6902,1.05000,0.95000,1.10000,0.90000
   89,'ClinchRv    ', 138.0000,2,   1,   1,   1,1.00500,  39.7458,1.05000,0.95000,1.10000,0.90000
   90,'Holston     ', 138.0000,2,   1,   1,   1,0.98500,  33.3411,1.05000,0.95000,1.10000,0.90000
   91,'HolstonT    ', 138.0000,2,   1,   1,   1,0.98000,  33.3601,1.05000,0.95000,1.10000,0.90000
   92,'Saltvlle    ', 138.0000,2,   1,   1,   1,0.99228,  33.8592,1.05000,0.95000,1.10000,0.90000
   93,'Tazewell    ', 138.0000,1,   1,   1,   1,0.98691,  30.8481,1.05000,0.95000,1.10000,0.90000
   94,'Switchbk    ', 138.0000,1,   1,   1,   1,0.99057,  28.6941,1.05000,0.95000,1.10000,0.90000
   95,'Caldwell    ', 138.0000,1,   1,   1,   1,0.98092,  27.7218,1.05000,0.95000,1.10000,0.90000
   96,'Baileysv    ', 138.0000,1,   1,   1,   1,0.99267,  27.5539,1.05000,0.95000,1.10000,0.90000
   97,'Sundial     ', 138.0000,1,   1,   1,   1,1.01137,  27.9264,1.05000,0.95000,1.10000,0.90000
   98,'Bradley     ', 138.0000,1,   1,   1,   1,1.02351,  27.4497,1.05000,0.95000,1.10000,0.90000
   99,'Hinton      ', 138.0000,2,   1,   1,   1,1.01000,  27.0891,1.05000,0.95000,1.10000,0.90000
  100,'Glen Lyn    ', 138.0000,2,   1,   1,   1,1.01700,  28.0863,1.05000,0.95000,1.10000,0.90000
  101,'Wythe       ', 138.0000,1,   1,   1,   1,0.99244,  29.6586,1.05000,0.95000,1.10000,0.90000
  102,'Smythe      ', 138.0000,1,   1,   1,   1,0.99100,  32.3560,1.05000,0.95000,1.10000,0.90000
  103,'Claytor     ', 138.0000,2,   1,   1,   1,1.00072,  24.4935,1.05000,0.95000,1.10000,0.90000
  104,'Hancock     ', 138.0000,2,   1,   1,   1,0.97100,  21.7479,1.05000,0.95000,1.10000,0.90000
  105,'Roanoke     ', 138.0000,2,   1,   1,   1,0.96599,  20.6259,1.05000,0.95000,1.10000,0.90000
  106,'Cloverdl    ', 138.0000,1,   1,   1,   1,0.96179,  20.3778,1.05000,0.95000,1.10000,0.90000
  107,'Reusens     ', 138.0000,2,   1,   1,   1,0.95200,  17.5878,1.05000,0.95000,1.10000,0.90000
  108,'Blaine      ', 138.0000,1,   1,   1,   1,0.96681,  19.4352,1.05000,0.95000,1.10000,0.90000
  109,'Franklin    ', 138.0000,1,   1,   1,   1,0.96746,  18.9861,1.05000,0.95000,1.10000,0.90000
  110,'Fieldale    ', 138.0000,2,   1,   1,   1,0.97300,  18.1474,1.05000,0.95000,1.10000,0.90000
  111,'DanRiver    ', 138.0000,2,   1,   1,   1,0.98000,  19.7925,1.05000,0.95000,1.10000,0.90000
  112,'Danville    ', 138.0000,2,   1,   1,   1,0.97500,  15.0482,1.05000,0.95000,1.10000,0.90000
  113,'Deer Crk    ', 138.0000,2,   1,   1,   1,0.99300,  14.0037,1.05000,0.95000,1.10000,0.90000
  114,'WMedford    ', 138.0000,1,   1,   1,   1,0.96044,  14.7298,1.05000,0.95000,1.10000,0.90000
  115,'Medford     ', 138.0000,1,   1,   1,   1,0.96032,  14.7221,1.05000,0.95000,1.10000,0.90000
  116,'KygerCrk    ', 345.0000,2,   1,   1,   1,1.00500,  27.1664,1.05000,0.95000,1.10000,0.90000
  117,'Corey       ', 138.0000,1,   1,   1,   1,0.97382,  10.9583,1.05000,0.95000,1.10000,0.90000
  118,'WHuntngd    ', 138.0000,1,   1,   1,   1,0.94944,  21.9462,1.05000,0.95000,1.10000,0.90000
  119,'GenThermal  ',  13.8000,1,   1,   1,   1,1.00000,   0.0000,1.05000,0.95000,1.10000,0.90000
  120,'GenThermal  ',  13.8000,1,   1,   1,   1,1.00000,   0.0000,1.05000,0.95000,1.10000,0.90000
  121,'GenThermal  ',  13.8000,1,   1,   1,   1,1.00000,   0.0000,1.05000,0.95000,1.10000,0.90000
  122,'GenThermal  ',  13.8000,1,   1,   1,   1,1.00000,   0.0000,1.05000,0.95000,1.10000,0.90000
  123,'GenThermal  ',  13.8000,1,   1,   1,   1,1.00000,   0.0000,1.05000,0.95000,1.10000,0.90000
  124,'GenThermal  ',  13.8000,1,   1,   1,   1,1.00000,   0.0000,1.05000,0.95000,1.10000,0.90000
  125,'GenThermal  ',  13.8000,1,   1,   1,   1,1.00000,   0.0000,1.05000,0.95000,1.10000,0.90000
  126,'GenSolar    ',  13.8000,1,   1,   1,   1,1.00000,   0.0000,1.05000,0.95000,1.10000,0.90000
  127,'GenThermal  ',  13.8000,1,   1,   1,   1,1.00000,   0.0000,1.05000,0.95000,1.10000,0.90000
  128,'GenSolar    ',  13.8000,1,   1,   1,   1,1.00000,   0.0000,1.05000,0.95000,1.10000,0.90000
  129,'GenThermal  ',  13.8000,1,   1,   1,   1,1.00000,   0.0000,1.05000,0.95000,1.10000,0.90000
  130,'GenSolar    ',  13.8000,1,   1,   1,   1,1.00000,   0.0000,1.05000,0.95000,1.10000,0.90000
  131,'GenThermal  ',  13.8000,1,   1,   1,   1,1.00000,   0.0000,1.05000,0.95000,1.10000,0.90000
  132,'GenWind     ',  13.8000,1,   1,   1,   1,1.00000,   0.0000,1.05000,0.95000,1.10000,0.90000
  133,'GenThermal  ',  13.8000,1,   1,   1,   1,1.00000,   0.0000,1.05000,0.95000,1.10000,0.90000
  134,'GenThermal  ',  13.8000,1,   1,   1,   1,1.00000,   0.0000,1.05000,0.95000,1.10000,0.90000
  135,'GenThermal  ',  13.8000,1,   1,   1,   1,1.00000,   0.0000,1.05000,0.95000,1.10000,0.90000
  136,'GenWind     ',  13.8000,1,   1,   1,   1,1.00000,   0.0000,1.05000,0.95000,1.10000,0.90000
  137,'GenThermal  ',  13.8000,1,   1,   1,   1,1.00000,   0.0000,1.05000,0.95000,1.10000,0.90000
  138,'GenWind     ',  13.8000,1,   1,   1,   1,1.00000,   0.0000,1.05000,0.95000,1.10000,0.90000
  139,'GenThermal  ',  13.8000,1,   1,   1,   1,1.00000,   0.0000,1.05000,0.95000,1.10000,0.90000
  140,'GenSolar    ',  13.8000,1,   1,   1,   1,1.00000,   0.0000,1.05000,0.95000,1.10000,0.90000
  141,'GenThermal  ',  13.8000,1,   1,   1,   1,1.00000,   0.0000,1.05000,0.95000,1.10000,0.90000
  142,'GenThermal  ',  13.8000,1,   1,   1,   1,1.00000,   0.0000,1.05000,0.95000,1.10000,0.90000
  143,'GenThermal  ',  13.8000,1,   1,   1,   1,1.00000,   0.0000,1.05000,0.95000,1.10000,0.90000
  144,'GenThermal  ',  13.8000,1,   1,   1,   1,1.00000,   0.0000,1.05000,0.95000,1.10000,0.90000
  145,'GenThermal  ',  13.8000,1,   1,   1,   1,1.00000,   0.0000,1.05000,0.95000,1.10000,0.90000
  146,'GenThermal  ',  13.8000,1,   1,   1,   1,1.00000,   0.0000,1.05000,0.95000,1.10000,0.90000
  147,'GenThermal  ',  13.8000,1,   1,   1,   1,1.00000,   0.0000,1.05000,0.95000,1.10000,0.90000
  148,'GenThermal  ',  13.8000,1,   1,   1,   1,1.00000,   0.0000,1.05000,0.95000,1.10000,0.90000
  149,'GenSolar    ',  13.8000,1,   1,   1,   1,1.00000,   0.0000,1.05000,0.95000,1.10000,0.90000
  150,'GenThermal  ',  13.8000,1,   1,   1,   1,1.00000,   0.0000,1.05000,0.95000,1.10000,0.90000
  151,'GenSolar    ',  13.8000,1,   1,   1,   1,1.00000,   0.0000,1.05000,0.95000,1.10000,0.90000
  152,'GenThermal  ',  13.8000,1,   1,   1,   1,1.00000,   0.0000,1.05000,0.95000,1.10000,0.90000
  153,'GenThermal  ',  13.8000,1,   1,   1,   1,1.00000,   0.0000,1.05000,0.95000,1.10000,0.90000
  154,'GenThermal  ',  13.8000,1,   1,   1,   1,1.00000,   0.0000,1.05000,0.95000,1.10000,0.90000
  155,'GenThermal  ',  13.8000,1,   1,   1,   1,1.00000,   0.0000,1.05000,0.95000,1.10000,0.90000
  156,'GenThermal  ',  13.8000,1,   1,   1,   1,1.00000,   0.0000,1.05000,0.95000,1.10000,0.90000
  157,'GenThermal  ',  13.8000,1,   1,   1,   1,1.00000,   0.0000,1.05000,0.95000,1.10000,0.90000
  158,'GenThermal  ',  13.8000,1,   1,   1,   1,1.00000,   0.0000,1.05000,0.95000,1.10000,0.90000
  159,'GenSolar    ',  13.8000,1,   1,   1,   1,1.00000,   0.0000,1.05000,0.95000,1.10000,0.90000
  160,'GenThermal  ',  13.8000,1,   1,   1,   1,1.00000,   0.0000,1.05000,0.95000,1.10000,0.90000
  161,'GenThermal  ',  13.8000,1,   1,   1,   1,1.00000,   0.0000,1.05000,0.95000,1.10000,0.90000
  162,'GenThermal  ',  13.8000,1,   1,   1,   1,1.00000,   0.0000,1.05000,0.95000,1.10000,0.90000
  163,'GenThermal  ',  13.8000,1,   1,   1,   1,1.00000,   0.0000,1.05000,0.95000,1.10000,0.90000
  164,'GenThermal  ',  13.8000,1,   1,   1,   1,1.00000,   0.0000,1.05000,0.95000,1.10000,0.90000
  165,'GenSolar    ',  13.8000,1,   1,   1,   1,1.00000,   0.0000,1.05000,0.95000,1.10000,0.90000
  166,'GenThermal  ',  13.8000,1,   1,   1,   1,1.00000,   0.0000,1.05000,0.95000,1.10000,0.90000
  167,'GenThermal  ',  13.8000,1,   1,   1,   1,1.00000,   0.0000,1.05000,0.95000,1.10000,0.90000
  168,'GenWind     ',  13.8000,1,   1,   1,   1,1.00000,   0.0000,1.05000,0.95000,1.10000,0.90000
  169,'GenThermal  ',  13.8000,1,   1,   1,   1,1.00000,   0.0000,1.05000,0.95000,1.10000,0.90000
  170,'GenThermal  ',  13.8000,1,   1,   1,   1,1.00000,   0.0000,1.05000,0.95000,1.10000,0.90000
  171,'GenThermal  ',  13.8000,1,   1,   1,   1,1.00000,   0.0000,1.05000,0.95000,1.10000,0.90000
  172,'GenThermal  ',  13.8000,1,   1,   1,   1,1.00000,   0.0000,1.05000,0.95000,1.10000,0.90000
  173,'GenThermal  ',  13.8000,1,   1,   1,   1,1.00000,   0.0000,1.05000,0.95000,1.10000,0.90000
  174,'GenThermal  ',  13.8000,1,   1,   1,   1,1.00000,   0.0000,1.05000,0.95000,1.10000,0.90000
  175,'GenSolar    ',  13.8000,1,   1,   1,   1,1.00000,   0.0000,1.05000,0.95000,1.10000,0.90000
  176,'GenThermal  ',  13.8000,1,   1,   1,   1,1.00000,   0.0000,1.05000,0.95000,1.10000,0.90000
  177,'GenThermal  ',  13.8000,1,   1,   1,   1,1.00000,   0.0000,1.05000,0.95000,1.10000,0.90000
  178,'GenThermal  ',  13.8000,1,   1,   1,   1,1.00000,   0.0000,1.05000,0.95000,1.10000,0.90000
  179,'GenSolar    ',  13.8000,1,   1,   1,   1,1.00000,   0.0000,1.05000,0.95000,1.10000,0.90000
  180,'GenWind     ',  13.8000,1,   1,   1,   1,1.00000,   0.0000,1.05000,0.95000,1.10000,0.90000
  181,'GenThermal  ',  13.8000,1,   1,   1,   1,1.00000,   0.0000,1.05000,0.95000,1.10000,0.90000
  182,'GenThermal  ',  13.8000,1,   1,   1,   1,1.00000,   0.0000,1.05000,0.95000,1.10000,0.90000
  183,'GenSolar    ',  13.8000,1,   1,   1,   1,1.00000,   0.0000,1.05000,0.95000,1.10000,0.90000
  184,'GenThermal  ',  13.8000,1,   1,   1,   1,1.00000,   0.0000,1.05000,0.95000,1.10000,0.90000
  185,'GenSolar    ',  13.8000,1,   1,   1,   1,1.00000,   0.0000,1.05000,0.95000,1.10000,0.90000
  186,'GenThermal  ',  13.8000,1,   1,   1,   1,1.00000,   0.0000,1.05000,0.95000,1.10000,0.90000
  187,'GenThermal  ',  13.8000,1,   1,   1,   1,1.00000,   0.0000,1.05000,0.95000,1.10000,0.90000
  188,'GenSolar    ',  13.8000,1,   1,   1,   1,1.00000,   0.0000,1.05000,0.95000,1.10000,0.90000
  189,'GenThermal  ',  13.8000,1,   1,   1,   1,1.00000,   0.0000,1.05000,0.95000,1.10000,0.90000
  190,'GenThermal  ',  13.8000,1,   1,   1,   1,1.00000,   0.0000,1.05000,0.95000,1.10000,0.90000
  191,'GenSolar    ',  13.8000,1,   1,   1,   1,1.00000,   0.0000,1.05000,0.95000,1.10000,0.90000
  192,'GenThermal  ',  13.8000,1,   1,   1,   1,1.00000,   0.0000,1.05000,0.95000,1.10000,0.90000
  193,'GenThermal  ',  13.8000,1,   1,   1,   1,1.00000,   0.0000,1.05000,0.95000,1.10000,0.90000
0 / END OF BUS DATA, BEGIN LOAD DATA
    1,'1 ',1,   1,   1,    51.000,    27.000,     0.000,     0.000,     0.000,    -0.000,   1,1
    2,'1 ',1,   1,   1,    20.000,     9.000,     0.000,     0.000,     0.000,    -0.000,   1,1
    3,'1 ',1,   1,   1,    39.000,    10.000,     0.000,     0.000,     0.000,    -0.000,   1,1
    4,'1 ',1,   1,   1,    39.000,    12.000,     0.000,     0.000,     0.000,    -0.000,   1,1
    6,'1 ',1,   1,   1,    52.000,    22.000,     0.000,     0.000,     0.000,    -0.000,   1,1
    7,'1 ',1,   1,   1,    19.000,     2.000,     0.000,     0.000,     0.000,    -0.000,   1,1
    8,'1 ',1,   1,   1,    28.000,     0.000,     0.000,     0.000,     0.000,    -0.000,   1,1
   11,'1 ',1,   1,   1,    70.000,    23.000,     0.000,     0.000,     0.000,    -0.000,   1,1
   12,'1 ',1,   1,   1,    47.000,    10.000,     0.000,     0.000,     0.000,    -0.000,   1,1
   13,'1 ',1,   1,   1,    34.000,    16.000,     0.000,     0.000,     0.000,    -0.000,   1,1
   14,'1 ',1,   1,   1,    14.000,     1.000,     0.000,     0.000,     0.000,    -0.000,   1,1
   15,'1 ',1,   1,   1,    90.000,    30.000,     0.000,     0.000,     0.000,    -0.000,   1,1
   16,'1 ',1,   1,   1,    25.000,    10.000,     0.000,     0.000,     0.000,    -0.000,   1,1
   17,'1 ',1,   1,   1,    11.000,     3.000,     0.000,     0.000,     0.000,    -0.000,   1,1
   18,'1 ',1,   1,   1,    60.000,    34.000,     0.000,     0.000,     0.000,    -0.000,   1,1
   19,'1 ',1,   1,   1,    45.000,    25.000,     0.000,     0.000,     0.000,    -0.000,   1,1
   20,'1 ',1,   1,   1,    18.000,     3.000,     0.000,     0.000,     0.000,    -0.000,   1,1
   21,'1 ',1,   1,   1,    14.000,     8.000,     0.000,     0.000,     0.000,    -0.000,   1,1
   22,'1 ',1,   1,   1,    10.000,     5.000,     0.000,     0.000,     0.000,    -0.000,   1,1
   23,'1 ',1,   1,   1,     7.000,     3.000,     0.000,     0.000,     0.000,    -0.000,   1,1
   24,'1 ',1,   1,   1,    13.000,     0.000,     0.000,     0.000,     0.000,    -0.000,   1,1
   27,'1 ',1,   1,   1,    71.000,    13.000,     0.000,     0.000,     0.000,    -0.000,   1,1
   28,'1 ',1,   1,   1,    17.000,     7.000,     0.000,     0.000,     0.000,    -0.000,   1,1
   29,'1 ',1,   1,   1,    24.000,     4.000,     0.000,     0.000,     0.000,    -0.000,   1,1
   31,'1 ',1,   1,   1,    43.000,    27.000,     0.000,     0.000,     0.000,    -0.000,   1,1
   32,'1 ',1,   1,   1,    59.000,    23.000,     0.000,     0.000,     0.000,    -0.000,   1,1
   33,'1 ',1,   1,   1,    23.000,     9.000,     0.000,     0.000,     0.000,    -0.000,   1,1
   34,'1 ',1,   1,   1,    59.000,    26.000,     0.000,     0.000,     0.000,    -0.000,   1,1
   35,'1 ',1,   1,   1,    33.000,     9.000,     0.000,     0.000,     0.000,    -0.000,   1,1
   36,'1 ',1,   1,   1,    31.000,    17.000,     0.000,     0.000,     0.000,    -0.000,   1,1
   39,'1 ',1,   1,   1,    27.000,    11.000,     0.000,     0.000,     0.000,    -0.000,   1,1
   40,'1 ',1,   1,   1,    66.000,    23.000,     0.000,     0.000,     0.000,    -0.000,   1,1
   41,'1 ',1,   1,   1,    37.000,    10.000,     0.000,     0.000,     0.000,    -0.000,   1,1
   42,'1 ',1,   1,   1,    96.000,    23.000,     0.000,     0.000,     0.000,    -0.000,   1,1
   43,'1 ',1,   1,   1,    18.000,     7.000,     0.000,     0.000,     0.000,    -0.000,   1,1
   44,'1 ',1,   1,   1,    16.000,     8.000,     0.000,     0.000,     0.000,    -0.000,   1,1
   45,'1 ',1,   1,   1,    53.000,    22.000,     0.000,     0.000,     0.000,    -0.000,   1,1
   46,'1 ',1,   1,   1,    28.000,    10.000,     0.000,     0.000,     0.000,    -0.000,   1,1
   47,'1 ',1,   1,   1,    34.000,     0.000,     0.000,     0.000,     0.000,    -0.000,   1,1
   48,'1 ',1,   1,   1,    20.000,    11.000,     0.000,     0.000,     0.000,    -0.000,   1,1
   49,'1 ',1,   1,   1,    87.000,    30.000,     0.000,     0.000,     0.000,    -0.000,   1,1
   50,'1 ',1,   1,   1,    17.000,     4.000,     0.000,     0.000,     0.000,    -0.000,   1,1
   51,'1 ',1,   1,   1,    17.000,     8.000,     0.000,     0.000,     0.000,    -0.000,   1,1
   52,'1 ',1,   1,   1,    18.000,     5.000,     0.000,     0.000,     0.000,    -0.000,   1,1
   53,'1 ',1,   1,   1,    23.000,    11.000,     0.000,     0.000,     0.000,    -0.000,   1,1
   54,'1 ',1,   1,   1,   113.000,    32.000,     0.000,     0.000,     0.000,    -0.000,   1,1
   55,'1 ',1,   1,   1,    63.000,    22.000,     0.000,     0.000,     0.000,    -0.000,   1,1
   56,'1 ',1,   1,   1,    84.000,    18.000,     0.000,     0.000,     0.000,    -0.000,   1,1
   57,'1 ',1,   1,   1,    12.000,     3.000,     0.000,     0.000,     0.000,    -0.000,   1,1
   58,'1 ',1,   1,   1,    12.000,     3.000,     0.000,     0.000,     0.000,    -0.000,   1,1
   59,'1 ',1,   1,   1,   277.000,   113.000,     0.000,     0.000,     0.000,    -0.000,   1,1
   60,'1 ',1,   1,   1,    78.000,     3.000,     0.000,     0.000,     0.000,    -0.000,   1,1
   62,'1 ',1,   1,   1,    77.000,    14.000,     0.000,     0.000,     0.000,    -0.000,   1,1
   66,'1 ',1,   1,   1,    39.000,    18.000,     0.000,     0.000,     0.000,    -0.000,   1,1
   67,'1 ',1,   1,   1,    28.000,     7.000,     0.000,     0.000,     0.000,    -0.000,   1,1
   70,'1 ',1,   1,   1,    66.000,    20.000,     0.000,     0.000,     0.000,    -0.000,   1,1
   72,'1 ',1,   1,   1,    12.000,     0.000,     0.000,     0.000,     0.000,    -0.000,   1,1
   73,'1 ',1,   1,   1,     6.000,     0.000,     0.000,     0.000,     0.000,    -0.000,   1,1
   74,'1 ',1,   1,   1,    68.000,    27.000,     0.000,     0.000,     0.000,    -0.000,   1,1
   75,'1 ',1,   1,   1,    47.000,    11.000,     0.000,     0.000,     0.000,    -0.000,   1,1
   76,'1 ',1,   1,   1,    68.000,    36.000,     0.000,     0.000,     0.000,    -0.000,   1,1
   77,'1 ',1,   1,   1,    61.000,    28.000,     0.000,     0.000,     0.000,    -0.000,   1,1
   78,'1 ',1,   1,   1,    71.000,    26.000,     0.000,     0.000,     0.000,    -0.000,   1,1
   79,'1 ',1,   1,   1,    39.000,    32.000,     0.000,     0.000,     0.000,    -0.000,   1,1
   80,'1 ',1,   1,   1,   130.000,    26.000,     0.000,     0.000,     0.000,    -0.000,   1,1
   82,'1 ',1,   1,   1,    54.000,    27.000,     0.000,     0.000,     0.000,    -0.000,   1,1
   83,'1 ',1,   1,   1,    20.000,    10.000,     0.000,     0.000,     0.000,    -0.000,   1,1
   84,'1 ',1,   1,   1,    11.000,     7.000,     0.000,     0.000,     0.000,    -0.000,   1,1
   85,'1 ',1,   1,   1,    24.000,    15.000,     0.000,     0.000,     0.000,    -0.000,   1,1
   86,'1 ',1,   1,   1,    21.000,    10.000,     0.000,     0.000,     0.000,    -0.000,   1,1
   88,'1 ',1,   1,   1,    48.000,    10.000,     0.000,     0.000,     0.000,    -0.000,   1,1
   90,'1 ',1,   1,   1,   163.000,    42.000,     0.000,     0.000,     0.000,    -0.000,   1,1
   91,'1 ',1,   1,   1,    10.000,     0.000,     0.000,     0.000,     0.000,    -0.000,   1,1
   92,'1 ',1,   1,   1,    65.000,    10.000,     0.000,     0.000,     0.000,    -0.000,   1,1
   93,'1 ',1,   1,   1,    12.000,     7.000,     0.000,     0.000,     0.000,    -0.000,   1,1
   94,'1 ',1,   1,   1,    30.000,    16.000,     0.000,     0.000,     0.000,    -0.000,   1,1
   95,'1 ',1,   1,   1,    42.000,    31.000,     0.000,     0.000,     0.000,    -0.000,   1,1
   96,'1 ',1,   1,   1,    38.000,    15.000,     0.000,     0.000,     0.000,    -0.000,   1,1
   97,'1 ',1,   1,   1,    15.000,     9.000,     0.000,     0.000,     0.000,    -0.000,   1,1
   98,'1 ',1,   1,   1,    34.000,     8.000,     0.000,     0.000,     0.000,    -0.000,   1,1
   99,'1 ',1,   1,   1,    42.000,     0.000,     0.000,     0.000,     0.000,    -0.000,   1,1
  100,'1 ',1,   1,   1,    37.000,    18.000,     0.000,     0.000,     0.000,    -0.000,   1,1
  101,'1 ',1,   1,   1,    22.000,    15.000,     0.000,     0.000,     0.000,    -0.000,   1,1
  102,'1 ',1,   1,   1,     5.000,     3.000,     0.000,     0.000,     0.000,    -0.000,   1,1
  103,'1 ',1,   1,   1,    23.000,    16.000,     0.000,     0.000,     0.000,    -0.000,   1,1
  104,'1 ',1,   1,   1,    38.000,    25.000,     0.000,     0.000,     0.000,    -0.000,   1,1
  105,'1 ',1,   1,   1,    31.000,    26.000,     0.000,     0.000,     0.000,    -0.000,   1,1
  106,'1 ',1,   1,   1,    43.000,    16.000,     0.000,     0.000,     0.000,    -0.000,   1,1
  107,'1 ',1,   1,   1,    50.000,    12.000,     0.000,     0.000,     0.000,    -0.000,   1,1
  108,'1 ',1,   1,   1,     2.000,     1.000,     0.000,     0.000,     0.000,    -0.000,   1,1
  109,'1 ',1,   1,   1,     8.000,     3.000,     0.000,     0.000,     0.000,    -0.000,   1,1
  110,'1 ',1,   1,   1,    39.000,    30.000,     0.000,     0.000,     0.000,    -0.000,   1,1
  112,'1 ',1,   1,   1,    68.000,    13.000,     0.000,     0.000,     0.000,    -0.000,   1,1
  113,'1 ',1,   1,   1,     6.000,     0.000,     0.000,     0.000,     0.000,    -0.000,   1,1
  114,'1 ',1,   1,   1,     8.000,     3.000,     0.000,     0.000,     0.000,    -0.000,   1,1
  115,'1 ',1,   1,   1,    22.000,     7.000,     0.000,     0.000,     0.000,    -0.000,   1,1
  116,'1 ',1,   1,   1,   184.000,     0.000,     0.000,     0.000,     0.000,    -0.000,   1,1
  117,'1 ',1,   1,   1,    20.000,     8.000,     0.000,     0.000,     0.000,    -0.000,   1,1
  118,'1 ',1,   1,   1,    33.000,    15.000,     0.000,     0.000,     0.000,    -0.000,   1,1
0 / END OF LOAD DATA, BEGIN FIXED SHUNT DATA
     5,' 1', 1,     0.000,   -40.000
    34,' 1', 1,     0.000,    14.000
    37,' 1', 1,     0.000,   -25.000
    44,' 1', 1,     0.000,    10.000
    45,' 1', 1,     0.000,    10.000
    46,' 1', 1,     0.000,    10.000
    48,' 1', 1,     0.000,    15.000
    74,' 1', 1,     0.000,    12.000
    79,' 1', 1,     0.000,    20.000
    82,' 1', 1,     0.000,    20.000
    83,' 1', 1,     0.000,    10.000
   105,' 1', 1,     0.000,    20.000
   107,' 1', 1,     0.000,     6.000
   110,' 1', 1,     0.000,     6.000
0 / END OF FIXED SHUNT DATA, BEGIN GENERATOR DATA
  119,'1 ',     0.000,    -3.104,    48.000,   -15.000,0.99050,    0,   115.000,   0.00000,   1.00000,   0.00000,   0.00000,1.00000,1,  100.0, 10000.000,-10000.000,   1,1.0000,   0,1.0000,   0,1.0000,   0,1.0000,0, 1.0000
  120,'1 ',     0.000,   -15.005,   100.000,  -100.000,1.05000,    0,   115.000,   0.00000,   1.00000,   0.00000,   0.00000,1.00000,1,  100.0, 10000.000,-10000.000,   1,1.0000,   0,1.0000,   0,1.0000,   0,1.0000,0, 1.0000
  121,'1 ',     0.000,    15.930,    50.000,   -13.000,0.99000,    0,   115.000,   0.00000,   1.00000,   0.00000,   0.00000,1.00000,1,  100.0, 10000.000,-10000.000,   1,1.0000,   0,1.0000,   0,1.0000,   0,1.0000,0, 1.0000
  122,'1 ',     0.000,    62.758,    35.700,   -35.700,1.01500,    0,    42.000,   0.00000,   1.00000,   0.00000,   0.00000,1.00000,1,  100.0, 10000.000,-10000.000,   1,1.0000,   0,1.0000,   0,1.0000,   0,1.0000,0, 1.0000
  123,'1 ',   210.800,   -51.042,   100.000,   -73.500,1.05000,    0,   248.000,   0.00000,   1.00000,   0.00000,   0.00000,1.00000,1,  100.0, 10000.000,-10000.000,   1,1.0000,   0,1.0000,   0,1.0000,   0,1.0000,0, 1.0000
  124,'1 ',    20.000,    91.274,    12.500,    -8.800,1.00950,    0,    23.500,   0.00000,   1.00000,   0.00000,   0.00000,1.00000,1,  100.0, 10000.000,-10000.000,   1,1.0000,   0,1.0000,   0,1.0000,   0,1.0000,0, 1.0000
  125,'1 ',     0.000,     3.060,    30.000,   -10.000,0.98000,    0,   115.000,   0.00000,   1.00000,   0.00000,   0.00000,1.00000,1,  100.0, 10000.000,-10000.000,   1,1.0000,   0,1.0000,   0,1.0000,   0,1.0000,0, 1.0000
  126,'S ',     0.000,     0.000,     0.000,     0.000,0.00000,    0,    53.600,   0.00000,   1.00000,   0.00000,   0.00000,1.00000,1,  100.0, 10000.000,-10000.000,   1,1.0000,   0,1.0000,   0,1.0000,   0,1.0000,0, 1.0000
  127,'1 ',     0.000,    25.532,    50.000,   -16.000,0.97300,    0,   115.000,   0.00000,   1.00000,   0.00000,   0.00000,1.00000,1,  100.0, 10000.000,-10000.000,   1,1.0000,   0,1.0000,   0,1.0000,   0,1.0000,0, 1.0000
  128,'S ',     0.000,     0.000,     0.000,     0.000,0.00000,    0,    73.200,   0.00000,   1.00000,   0.00000,   0.00000,1.00000,1,  100.0, 10000.000,-10000.000,   1,1.0000,   0,1.0000,   0,1.0000,   0,1.0000,0, 1.0000
  129,'1 ',     0.000,    -8.000,    24.000,    -8.000,0.96400,    0,   115.000,   0.00000,   1.00000,   0.00000,   0.00000,1.00000,1,  100.0, 10000.000,-10000.000,   1,1.0000,   0,1.0000,   0,1.0000,   0,1.0000,0, 1.0000
  130,'S ',     0.000,     0.000,     0.000,     0.000,0.00000,    0,    49.600,   0.00000,   1.00000,   0.00000,   0.00000,1.00000,1,  100.0, 10000.000,-10000.000,   1,1.0000,   0,1.0000,   0,1.0000,   0,1.0000,0, 1.0000
  131,'1 ',     0.000,   -15.282,    42.500,   -42.500,1.00480,    0,   470.000,   0.00000,   1.00000,   0.00000,   0.00000,1.00000,1,  100.0, 10000.000,-10000.000,   1,1.0000,   0,1.0000,   0,1.0000,   0,1.0000,0, 1.0000
  132,'W ',     0.000,     0.000,     0.000,     0.000,0.00000,    0,    26.000,   0.00000,   1.00000,   0.00000,   0.00000,1.00000,1,  100.0, 10000.000,-10000.000,   1,1.0000,   0,1.0000,   0,1.0000,   0,1.0000,0, 1.0000
  133,'1 ',   182.800,    49.798,   110.000,   -47.000,1.05000,    0,   215.000,   0.00000,   1.00000,   0.00000,   0.00000,1.00000,1,  100.0, 10000.000,-10000.000,   1,1.0000,   0,1.0000,   0,1.0000,   0,1.0000,0, 1.0000
  134,'1 ',   130.000,     9.905,    80.000,   -80.000,1.05330,    0,   153.000,   0.00000,   1.00000,   0.00000,   0.00000,1.00000,1,  100.0, 10000.000,-10000.000,   1,1.0000,   0,1.0000,   0,1.0000,   0,1.0000,0, 1.0000
  135,'1 ',     0.000,     2.831,   300.000,  -300.000,0.98000,    0,   440.000,   0.00000,   1.00000,   0.00000,   0.00000,1.00000,1,  100.0, 10000.000,-10000.000,   1,1.0000,   0,1.0000,   0,1.0000,   0,1.0000,0, 1.0000
  136,'W ',     0.000,     0.000,     0.000,     0.000,0.00000,    0,    41.600,   0.00000,   1.00000,   0.00000,   0.00000,1.00000,1,  100.0, 10000.000,-10000.000,   1,1.0000,   0,1.0000,   0,1.0000,   0,1.0000,0, 1.0000
  137,'1 ',     7.000,    31.976,     4.000,    -4.000,0.98100,    0,     8.000,   0.00000,   1.00000,   0.00000,   0.00000,1.00000,1,  100.0, 10000.000,-10000.000,   1,1.0000,   0,1.0000,   0,1.0000,   0,1.0000,0, 1.0000
  138,'W ',     0.000,     0.000,     0.000,     0.000,0.00000,    0,    62.000,   0.00000,   1.00000,   0.00000,   0.00000,1.00000,1,  100.0, 10000.000,-10000.000,   1,1.0000,   0,1.0000,   0,1.0000,   0,1.0000,0, 1.0000
  139,'1 ',     0.000,   -14.000,    42.000,   -14.000,0.97140,    0,   115.000,   0.00000,   1.00000,   0.00000,   0.00000,1.00000,1,  100.0, 10000.000,-10000.000,   1,1.0000,   0,1.0000,   0,1.0000,   0,1.0000,0, 1.0000
  140,'S ',     0.000,     0.000,     0.000,     0.000,0.00000,    0,   300.000,   0.00000,   1.00000,   0.00000,   0.00000,1.00000,1,  100.0, 10000.000,-10000.000,   1,1.0000,   0,1.0000,   0,1.0000,   0,1.0000,0, 1.0000
  141,'1 ',     0.000,    -8.000,    24.000,    -8.000,1.00480,    0,   115.000,   0.00000,   1.00000,   0.00000,   0.00000,1.00000,1,  100.0, 10000.000,-10000.000,   1,1.0000,   0,1.0000,   0,1.0000,   0,1.0000,0, 1.0000
  142,'1 ',     0.000,    -1.252,    24.000,    -8.000,1.00000,    0,   115.000,   0.00000,   1.00000,   0.00000,   0.00000,1.00000,1,  100.0, 10000.000,-10000.000,   1,1.0000,   0,1.0000,   0,1.0000,   0,1.0000,0, 1.0000
  143,'1 ',     0.000,    26.886,   100.000,  -100.000,0.99050,    0,   115.000,   0.00000,   1.00000,   0.00000,   0.00000,1.00000,1,  100.0, 10000.000,-10000.000,   1,1.0000,   0,1.0000,   0,1.0000,   0,1.0000,0, 1.0000
  144,'1 ',     0.000,    41.004,    29.800,   -29.800,1.00950,    0,    35.000,   0.00000,   1.00000,   0.00000,   0.00000,1.00000,1,  100.0, 10000.000,-10000.000,   1,1.0000,   0,1.0000,   0,1.0000,   0,1.0000,0, 1.0000
  145,'1 ',     9.300,    -5.231,     6.000,    -4.000,1.01330,    0,    10.900,   0.00000,   1.00000,   0.00000,   0.00000,1.00000,1,  100.0, 10000.000,-10000.000,   1,1.0000,   0,1.0000,   0,1.0000,   0,1.0000,0, 1.0000
  146,'1 ',   106.500,   115.647,    90.000,   -45.000,1.01330,    0,   150.000,   0.00000,   1.00000,   0.00000,   0.00000,1.00000,1,  100.0, 10000.000,-10000.000,   1,1.0000,   0,1.0000,   0,1.0000,   0,1.0000,0, 1.0000
  147,'1 ',    34.000,     3.902,    20.000,   -20.000,1.00000,    0,    40.000,   0.00000,   1.00000,   0.00000,   0.00000,1.00000,1,  100.0, 10000.000,-10000.000,   1,1.0000,   0,1.0000,   0,1.0000,   0,1.0000,0, 1.0000
  148,'2 ',    35.000,     3.902,    20.000,   -20.000,1.00000,    0,    40.000,   0.00000,   1.00000,   0.00000,   0.00000,1.00000,1,  100.0, 10000.000,-10000.000,   1,1.0000,   0,1.0000,   0,1.0000,   0,1.0000,0, 1.0000
  149,'S ',     0.000,     0.000,     0.000,     0.000,0.00000,    0,   105.600,   0.00000,   1.00000,   0.00000,   0.00000,1.00000,1,  100.0, 10000.000,-10000.000,   1,1.0000,   0,1.0000,   0,1.0000,   0,1.0000,0, 1.0000
  150,'1 ',     0.000,     4.664,    23.000,    -8.000,0.97140,    0,   115.000,   0.00000,   1.00000,   0.00000,   0.00000,1.00000,1,  100.0, 10000.000,-10000.000,   1,1.0000,   0,1.0000,   0,1.0000,   0,1.0000,0, 1.0000
  151,'S ',     0.000,     0.000,     0.000,     0.000,0.00000,    0,    12.000,   0.00000,   1.00000,   0.00000,   0.00000,1.00000,1,  100.0, 10000.000,-10000.000,   1,1.0000,   0,1.0000,   0,1.0000,   0,1.0000,0, 1.0000
  152,'1 ',     0.000,    -2.286,    15.000,    -8.000,1.00950,    0,    20.000,   0.00000,   1.00000,   0.00000,   0.00000,1.00000,1,  100.0, 10000.000,-10000.000,   1,1.0000,   0,1.0000,   0,1.0000,   0,1.0000,0, 1.0000
  153,'1 ',    95.000,    76.834,    65.000,   -30.000,1.03330,    0,   115.000,   0.00000,   1.00000,   0.00000,   0.00000,1.00000,1,  100.0, 10000.000,-10000.000,   1,1.0000,   0,1.0000,   0,1.0000,   0,1.0000,0, 1.0000
  154,'1 ',   200.000,   -40.394,   130.000,  -100.000,1.04670,    0,   238.000,   0.00000,   1.00000,   0.00000,   0.00000,1.00000,1,  100.0, 10000.000,-10000.000,   1,1.0000,   0,1.0000,   0,1.0000,   0,1.0000,0, 1.0000
  155,'1 ',     0.000,     1.259,    50.000,   -50.000,1.02860,    0,   115.000,   0.00000,   1.00000,   0.00000,   0.00000,1.00000,1,  100.0, 10000.000,-10000.000,   1,1.0000,   0,1.0000,   0,1.0000,   0,1.0000,0, 1.0000
  156,'1 ',   187.000,    80.812,   100.000,   -33.500,1.04500,    0,   220.000,   0.00000,   1.00000,   0.00000,   0.00000,1.00000,1,  100.0, 10000.000,-10000.000,   1,1.0000,   0,1.0000,   0,1.0000,   0,1.0000,0, 1.0000
  157,'1 ',   196.000,    -1.951,   100.000,   -33.500,1.02500,    0,   238.000,   0.00000,   1.00000,   0.00000,   0.00000,1.00000,1,  100.0, 10000.000,-10000.000,   1,1.0000,   0,1.0000,   0,1.0000,   0,1.0000,0, 1.0000
  158,'1 ',   513.388,   -82.378,   300.000,  -300.000,1.05000,    0,   153.000,   0.00000,   1.00000,   0.00000,   0.00000,1.00000,1,  100.0, 10000.000,-10000.000,   1,1.0000,   0,1.0000,   0,1.0000,   0,1.0000,0, 1.0000
  159,'S ',     0.000,     0.000,     0.000,     0.000,0.00000,    0,    49.600,   0.00000,   1.00000,   0.00000,   0.00000,1.00000,1,  100.0, 10000.000,-10000.000,   1,1.0000,   0,1.0000,   0,1.0000,   0,1.0000,0, 1.0000
  160,'1 ',     0.000,     9.664,    32.000,   -10.000,0.98400,    0,   115.000,   0.00000,   1.00000,   0.00000,   0.00000,1.00000,1,  100.0, 10000.000,-10000.000,   1,1.0000,   0,1.0000,   0,1.0000,   0,1.0000,0, 1.0000
  161,'1 ',     0.000,   -11.130,   100.000,  -100.000,1.00190,    0,   110.000,   0.00000,   1.00000,   0.00000,   0.00000,1.00000,1,  100.0, 10000.000,-10000.000,   1,1.0000,   0,1.0000,   0,1.0000,   0,1.0000,0, 1.0000
  162,'1 ',     0.000,     9.651,   100.000,  -100.000,0.99100,    0,   115.000,   0.00000,   1.00000,   0.00000,   0.00000,1.00000,1,  100.0, 10000.000,-10000.000,   1,1.0000,   0,1.0000,   0,1.0000,   0,1.0000,0, 1.0000
  163,'1 ',     0.000,    -5.628,     9.000,    -6.000,0.96000,    0,   115.000,   0.00000,   1.00000,   0.00000,   0.00000,1.00000,1,  100.0, 10000.000,-10000.000,   1,1.0000,   0,1.0000,   0,1.0000,   0,1.0000,0, 1.0000
  164,'1 ',     0.000,     5.269,    50.000,   -50.000,1.00000,    0,   115.000,   0.00000,   1.00000,   0.00000,   0.00000,1.00000,1,  100.0, 10000.000,-10000.000,   1,1.0000,   0,1.0000,   0,1.0000,   0,1.0000,0, 1.0000
  165,'S ',     0.000,     0.000,     0.000,     0.000,0.00000,    0,    10.000,   0.00000,   1.00000,   0.00000,   0.00000,1.00000,1,  100.0, 10000.000,-10000.000,   1,1.0000,   0,1.0000,   0,1.0000,   0,1.0000,0, 1.0000
  166,'1 ',     0.000,    11.943,    70.000,   -20.000,1.04760,    0,   115.000,   0.00000,   1.00000,   0.00000,   0.00000,1.00000,1,  100.0, 10000.000,-10000.000,   1,1.0000,   0,1.0000,   0,1.0000,   0,1.0000,0, 1.0000
  167,'1 ',   137.700,   105.050,   140.000,   -82.500,1.04000,    0,   162.000,   0.00000,   1.00000,   0.00000,   0.00000,1.00000,1,  100.0, 10000.000,-10000.000,   1,1.0000,   0,1.0000,   0,1.0000,   0,1.0000,0, 1.0000
  168,'W ',     0.000,     0.000,     0.000,     0.000,0.00000,    0,   139.200,   0.00000,   1.00000,   0.00000,   0.00000,1.00000,1,  100.0, 10000.000,-10000.000,   1,1.0000,   0,1.0000,   0,1.0000,   0,1.0000,0, 1.0000
  169,'1 ',     0.000,    -5.768,    23.000,    -8.000,0.98000,    0,   115.000,   0.00000,   1.00000,   0.00000,   0.00000,1.00000,1,  100.0, 10000.000,-10000.000,   1,1.0000,   0,1.0000,   0,1.0000,   0,1.0000,0, 1.0000
  170,'1 ',    10.000,    11.022,     7.500,    -5.000,0.99000,    0,    12.500,   0.00000,   1.00000,   0.00000,   0.00000,1.00000,1,  100.0, 10000.000,-10000.000,   1,1.0000,   0,1.0000,   0,1.0000,   0,1.0000,0, 1.0000
  171,'1 ',   202.000,   -11.794,   100.000,   -70.000,1.05000,    0,   238.000,   0.00000,   1.00000,   0.00000,   0.00000,1.00000,1,  100.0, 10000.000,-10000.000,   1,1.0000,   0,1.0000,   0,1.0000,   0,1.0000,0, 1.0000
  172,'1 ',     0.000,    59.300,    32.700,   -32.700,1.01900,    0,    38.500,   0.00000,   1.00000,   0.00000,   0.00000,1.00000,1,  100.0, 10000.000,-10000.000,   1,1.0000,   0,1.0000,   0,1.0000,   0,1.0000,0, 1.0000
  173,'1 ',     0.000,   -14.847,    29.800,   -29.800,1.01430,    0,    35.000,   0.00000,   1.00000,   0.00000,   0.00000,1.00000,1,  100.0, 10000.000,-10000.000,   1,1.0000,   0,1.0000,   0,1.0000,   0,1.0000,0, 1.0000
  174,'1 ',     0.000,    -3.000,    21.000,    -3.000,1.00570,    0,   115.000,   0.00000,   1.00000,   0.00000,   0.00000,1.00000,1,  100.0, 10000.000,-10000.000,   1,1.0000,   0,1.0000,   0,1.0000,   0,1.0000,0, 1.0000
  175,'S ',     0.000,     0.000,     0.000,     0.000,0.00000,    0,   207.600,   0.00000,   1.00000,   0.00000,   0.00000,1.00000,1,  100.0, 10000.000,-10000.000,   1,1.0000,   0,1.0000,   0,1.0000,   0,1.0000,0, 1.0000
  176,'1 ',     0.000,   -17.537,   100.000,  -100.000,1.01000,    0,   115.000,   0.00000,   1.00000,   0.00000,   0.00000,1.00000,1,  100.0, 10000.000,-10000.000,   1,1.0000,   0,1.0000,   0,1.0000,   0,1.0000,0, 1.0000
  177,'1 ',    85.000,   110.058,    50.000,   -25.000,1.01700,    0,   100.000,   0.00000,   1.00000,   0.00000,   0.00000,1.00000,1,  100.0, 10000.000,-10000.000,   1,1.0000,   0,1.0000,   0,1.0000,   0,1.0000,0, 1.0000
  178,'2 ',   200.000,   110.058,   130.000,   -90.000,1.01700,    0,   238.000,   0.00000,   1.00000,   0.00000,   0.00000,1.00000,1,  100.0, 10000.000,-10000.000,   1,1.0000,   0,1.0000,   0,1.0000,   0,1.0000,0, 1.0000
  179,'S ',     0.000,     0.000,     0.000,     0.000,0.00000,    0,    41.600,   0.00000,   1.00000,   0.00000,   0.00000,1.00000,1,  100.0, 10000.000,-10000.000,   1,1.0000,   0,1.0000,   0,1.0000,   0,1.0000,0, 1.0000
  180,'W ',     0.000,     0.000,     0.000,     0.000,0.00000,    0,   160.000,   0.00000,   1.00000,   0.00000,   0.00000,1.00000,1,  100.0, 10000.000,-10000.000,   1,1.0000,   0,1.0000,   0,1.0000,   0,1.0000,0, 1.0000
  181,'1 ',    60.000,    40.000,    40.000,   -15.000,1.00000,    0,    75.000,   0.00000,   1.00000,   0.00000,   0.00000,1.00000,1,  100.0, 10000.000,-10000.000,   1,1.0000,   0,1.0000,   0,1.0000,   0,1.0000,0, 1.0000
  182,'1 ',     0.000,     5.643,    23.000,    -8.000,0.97100,    0,   115.000,   0.00000,   1.00000,   0.00000,   0.00000,1.00000,1,  100.0, 10000.000,-10000.000,   1,1.0000,   0,1.0000,   0,1.0000,   0,1.0000,0, 1.0000
  183,'S ',     0.000,     0.000,     0.000,     0.000,0.00000,    0,   186.400,   0.00000,   1.00000,   0.00000,   0.00000,1.00000,1,  100.0, 10000.000,-10000.000,   1,1.0000,   0,1.0000,   0,1.0000,   0,1.0000,0, 1.0000
  184,'1 ',     0.000,    -8.000,    23.000,    -8.000,0.97050,    0,   115.000,   0.00000,   1.00000,   0.00000,   0.00000,1.00000,1,  100.0, 10000.000,-10000.000,   1,1.0000,   0,1.0000,   0,1.0000,   0,1.0000,0, 1.0000
  185,'S ',     0.000,     0.000,     0.000,     0.000,0.00000,    0,   108.800,   0.00000,   1.00000,   0.00000,   0.00000,1.00000,1,  100.0, 10000.000,-10000.000,   1,1.0000,   0,1.0000,   0,1.0000,   0,1.0000,0, 1.0000
  186,'1 ',     0.000,     5.694,    10.600,   -10.600,0.98100,    0,    12.500,   0.00000,   1.00000,   0.00000,   0.00000,1.00000,1,  100.0, 10000.000,-10000.000,   1,1.0000,   0,1.0000,   0,1.0000,   0,1.0000,0, 1.0000
  187,'1 ',     0.000,     4.854,    23.000,    -8.000,0.97300,    0,   115.000,   0.00000,   1.00000,   0.00000,   0.00000,1.00000,1,  100.0, 10000.000,-10000.000,   1,1.0000,   0,1.0000,   0,1.0000,   0,1.0000,0, 1.0000
  188,'S ',     0.000,     0.000,     0.000,     0.000,0.00000,    0,   101.200,   0.00000,   1.00000,   0.00000,   0.00000,1.00000,1,  100.0, 10000.000,-10000.000,   1,1.0000,   0,1.0000,   0,1.0000,   0,1.0000,0, 1.0000
  189,'1 ',    57.000,    -1.844,    35.000,   -30.000,1.02000,    0,    67.000,   0.00000,   1.00000,   0.00000,   0.00000,1.00000,1,  100.0, 10000.000,-10000.000,   1,1.0000,   0,1.0000,   0,1.0000,   0,1.0000,0, 1.0000
  190,'1 ',     0.000,    41.512,     8.500,    -8.500,0.98100,    0,    10.000,   0.00000,   1.00000,   0.00000,   0.00000,1.00000,1,  100.0, 10000.000,-10000.000,   1,1.0000,   0,1.0000,   0,1.0000,   0,1.0000,0, 1.0000
  191,'S ',     0.000,     0.000,     0.000,     0.000,0.00000,    0,    65.200,   0.00000,   1.00000,   0.00000,   0.00000,1.00000,1,  100.0, 10000.000,-10000.000,   1,1.0000,   0,1.0000,   0,1.0000,   0,1.0000,0, 1.0000
  192,'1 ',     0.000,     6.323,     5.000,    -5.000,1.00950,    0,     6.000,   0.00000,   1.00000,   0.00000,   0.00000,1.00000,1,  100.0, 10000.000,-10000.000,   1,1.0000,   0,1.0000,   0,1.0000,   0,1.0000,0, 1.0000
  193,'1 ',   184.000,    51.324,   184.400,  -184.400,1.00500,    0,   217.000,   0.00000,   1.00000,   0.00000,   0.00000,1.00000,1,  100.0, 10000.000,-10000.000,   1,1.0000,   0,1.0000,   0,1.0000,   0,1.0000,0, 1.0000
0 / END OF GENERATOR DATA, BEGIN BRANCH DATA
    1,     2,'1 ', 0.03030, 0.09990,0.02540, 157.00,   0.00,   0.00,  0.00000,  0.00000,  0.00000,  0.00000,1,1,   0.0,   1,1.0000,   0,1.0000,   0,1.0000,   0,1.0000
    1,     3,'1 ', 0.01290, 0.04240,0.01082, 157.00,   0.00,   0.00,  0.00000,  0.00000,  0.00000,  0.00000,1,1,   0.0,   1,1.0000,   0,1.0000,   0,1.0000,   0,1.0000
    2,    12,'1 ', 0.01870, 0.06160,0.01572, 157.00,   0.00,   0.00,  0.00000,  0.00000,  0.00000,  0.00000,1,1,   0.0,   1,1.0000,   0,1.0000,   0,1.0000,   0,1.0000
    3,     5,'1 ', 0.02410, 0.10800,0.02840, 157.00,   0.00,   0.00,  0.00000,  0.00000,  0.00000,  0.00000,1,1,   0.0,   1,1.0000,   0,1.0000,   0,1.0000,   0,1.0000
    3,    12,'1 ', 0.04840, 0.16000,0.04060, 157.00,   0.00,   0.00,  0.00000,  0.00000,  0.00000,  0.00000,1,1,   0.0,   1,1.0000,   0,1.0000,   0,1.0000,   0,1.0000
    4,     5,'1 ', 0.00176, 0.00798,0.00210, 157.00,   0.00,   0.00,  0.00000,  0.00000,  0.00000,  0.00000,1,1,   0.0,   1,1.0000,   0,1.0000,   0,1.0000,   0,1.0000
    4,    11,'1 ', 0.02090, 0.06880,0.01748, 157.00,   0.00,   0.00,  0.00000,  0.00000,  0.00000,  0.00000,1,1,   0.0,   1,1.0000,   0,1.0000,   0,1.0000,   0,1.0000
    5,     6,'1 ', 0.01190, 0.05400,0.01426, 157.00,   0.00,   0.00,  0.00000,  0.00000,  0.00000,  0.00000,1,1,   0.0,   1,1.0000,   0,1.0000,   0,1.0000,   0,1.0000
    5,    11,'1 ', 0.02030, 0.06820,0.01738, 157.00,   0.00,   0.00,  0.00000,  0.00000,  0.00000,  0.00000,1,1,   0.0,   1,1.0000,   0,1.0000,   0,1.0000,   0,1.0000
    6,     7,'1 ', 0.00459, 0.02080,0.00550, 157.00,   0.00,   0.00,  0.00000,  0.00000,  0.00000,  0.00000,1,1,   0.0,   1,1.0000,   0,1.0000,   0,1.0000,   0,1.0000
    7,    12,'1 ', 0.00862, 0.03400,0.00874, 157.00,   0.00,   0.00,  0.00000,  0.00000,  0.00000,  0.00000,1,1,   0.0,   1,1.0000,   0,1.0000,   0,1.0000,   0,1.0000
    8,     9,'1 ', 0.00244, 0.03050,1.16200,1084.00,   0.00,   0.00,  0.00000,  0.00000,  0.00000,  0.00000,1,1,   0.0,   1,1.0000,   0,1.0000,   0,1.0000,   0,1.0000
    8,    30,'1 ', 0.00431, 0.05040,0.51400,1084.00,   0.00,   0.00,  0.00000,  0.00000,  0.00000,  0.00000,1,1,   0.0,   1,1.0000,   0,1.0000,   0,1.0000,   0,1.0000
    9,    10,'1 ', 0.00258, 0.03220,1.23000,1084.00,   0.00,   0.00,  0.00000,  0.00000,  0.00000,  0.00000,1,1,   0.0,   1,1.0000,   0,1.0000,   0,1.0000,   0,1.0000
   11,    12,'1 ', 0.00595, 0.01960,0.00502, 157.00,   0.00,   0.00,  0.00000,  0.00000,  0.00000,  0.00000,1,1,   0.0,   1,1.0000,   0,1.0000,   0,1.0000,   0,1.0000
   11,    13,'1 ', 0.02225, 0.07310,0.01876, 157.00,   0.00,   0.00,  0.00000,  0.00000,  0.00000,  0.00000,1,1,   0.0,   1,1.0000,   0,1.0000,   0,1.0000,   0,1.0000
   12,    14,'1 ', 0.02150, 0.07070,0.01816, 157.00,   0.00,   0.00,  0.00000,  0.00000,  0.00000,  0.00000,1,1,   0.0,   1,1.0000,   0,1.0000,   0,1.0000,   0,1.0000
   12,    16,'1 ', 0.02120, 0.08340,0.02140, 157.00,   0.00,   0.00,  0.00000,  0.00000,  0.00000,  0.00000,1,1,   0.0,   1,1.0000,   0,1.0000,   0,1.0000,   0,1.0000
   12,   117,'1 ', 0.03290, 0.14000,0.03580, 157.00,   0.00,   0.00,  0.00000,  0.00000,  0.00000,  0.00000,1,1,   0.0,   1,1.0000,   0,1.0000,   0,1.0000,   0,1.0000
   13,    15,'1 ', 0.07440, 0.24440,0.06268, 157.00,   0.00,   0.00,  0.00000,  0.00000,  0.00000,  0.00000,1,1,   0.0,   1,1.0000,   0,1.0000,   0,1.0000,   0,1.0000
   14,    15,'1 ', 0.05950, 0.19500,0.05020, 157.00,   0.00,   0.00,  0.00000,  0.00000,  0.00000,  0.00000,1,1,   0.0,   1,1.0000,   0,1.0000,   0,1.0000,   0,1.0000
   15,    17,'1 ', 0.01320, 0.04370,0.04440, 157.00,   0.00,   0.00,  0.00000,  0.00000,  0.00000,  0.00000,1,1,   0.0,   1,1.0000,   0,1.0000,   0,1.0000,   0,1.0000
   15,    19,'1 ', 0.01200, 0.03940,0.01010, 157.00,   0.00,   0.00,  0.00000,  0.00000,  0.00000,  0.00000,1,1,   0.0,   1,1.0000,   0,1.0000,   0,1.0000,   0,1.0000
   15,    33,'1 ', 0.03800, 0.12440,0.03194, 157.00,   0.00,   0.00,  0.00000,  0.00000,  0.00000,  0.00000,1,1,   0.0,   1,1.0000,   0,1.0000,   0,1.0000,   0,1.0000
   16,    17,'1 ', 0.04540, 0.18010,0.04660, 157.00,   0.00,   0.00,  0.00000,  0.00000,  0.00000,  0.00000,1,1,   0.0,   1,1.0000,   0,1.0000,   0,1.0000,   0,1.0000
   17,    18,'1 ', 0.01230, 0.05050,0.01298, 157.00,   0.00,   0.00,  0.00000,  0.00000,  0.00000,  0.00000,1,1,   0.0,   1,1.0000,   0,1.0000,   0,1.0000,   0,1.0000
   17,    31,'1 ', 0.04740, 0.15630,0.03990, 157.00,   0.00,   0.00,  0.00000,  0.00000,  0.00000,  0.00000,1,1,   0.0,   1,1.0000,   0,1.0000,   0,1.0000,   0,1.0000
   17,   113,'1 ', 0.00913, 0.03010,0.00768, 157.00,   0.00,   0.00,  0.00000,  0.00000,  0.00000,  0.00000,1,1,   0.0,   1,1.0000,   0,1.0000,   0,1.0000,   0,1.0000
   18,    19,'1 ', 0.01119, 0.04930,0.01142, 157.00,   0.00,   0.00,  0.00000,  0.00000,  0.00000,  0.00000,1,1,   0.0,   1,1.0000,   0,1.0000,   0,1.0000,   0,1.0000
   19,    20,'1 ', 0.02520, 0.11700,0.02980, 157.00,   0.00,   0.00,  0.00000,  0.00000,  0.00000,  0.00000,1,1,   0.0,   1,1.0000,   0,1.0000,   0,1.0000,   0,1.0000
   19,    34,'1 ', 0.07520, 0.24700,0.06320, 157.00,   0.00,   0.00,  0.00000,  0.00000,  0.00000,  0.00000,1,1,   0.0,   1,1.0000,   0,1.0000,   0,1.0000,   0,1.0000
   20,    21,'1 ', 0.01830, 0.08490,0.02160, 157.00,   0.00,   0.00,  0.00000,  0.00000,  0.00000,  0.00000,1,1,   0.0,   1,1.0000,   0,1.0000,   0,1.0000,   0,1.0000
   21,    22,'1 ', 0.02090, 0.09700,0.02460, 157.00,   0.00,   0.00,  0.00000,  0.00000,  0.00000,  0.00000,1,1,   0.0,   1,1.0000,   0,1.0000,   0,1.0000,   0,1.0000
   22,    23,'1 ', 0.03420, 0.15900,0.04040, 157.00,   0.00,   0.00,  0.00000,  0.00000,  0.00000,  0.00000,1,1,   0.0,   1,1.0000,   0,1.0000,   0,1.0000,   0,1.0000
   23,    24,'1 ', 0.01350, 0.04920,0.04980, 157.00,   0.00,   0.00,  0.00000,  0.00000,  0.00000,  0.00000,1,1,   0.0,   1,1.0000,   0,1.0000,   0,1.0000,   0,1.0000
   23,    25,'1 ', 0.01560, 0.08000,0.08640, 157.00,   0.00,   0.00,  0.00000,  0.00000,  0.00000,  0.00000,1,1,   0.0,   1,1.0000,   0,1.0000,   0,1.0000,   0,1.0000
   23,    32,'1 ', 0.03170, 0.11530,0.11730, 157.00,   0.00,   0.00,  0.00000,  0.00000,  0.00000,  0.00000,1,1,   0.0,   1,1.0000,   0,1.0000,   0,1.0000,   0,1.0000
   24,    70,'1 ', 0.00221, 0.41150,0.10198, 157.00,   0.00,   0.00,  0.00000,  0.00000,  0.00000,  0.00000,1,1,   0.0,   1,1.0000,   0,1.0000,   0,1.0000,   0,1.0000
   24,    72,'1 ', 0.04880, 0.19600,0.04880, 157.00,   0.00,   0.00,  0.00000,  0.00000,  0.00000,  0.00000,1,1,   0.0,   1,1.0000,   0,1.0000,   0,1.0000,   0,1.0000
   25,    27,'1 ', 0.03180, 0.16300,0.17640, 157.00,   0.00,   0.00,  0.00000,  0.00000,  0.00000,  0.00000,1,1,   0.0,   1,1.0000,   0,1.0000,   0,1.0000,   0,1.0000
   26,    30,'1 ', 0.00799, 0.08600,0.90800,1084.00,   0.00,   0.00,  0.00000,  0.00000,  0.00000,  0.00000,1,1,   0.0,   1,1.0000,   0,1.0000,   0,1.0000,   0,1.0000
   27,    28,'1 ', 0.01913, 0.08550,0.02160, 157.00,   0.00,   0.00,  0.00000,  0.00000,  0.00000,  0.00000,1,1,   0.0,   1,1.0000,   0,1.0000,   0,1.0000,   0,1.0000
   27,    32,'1 ', 0.02290, 0.07550,0.01926, 157.00,   0.00,   0.00,  0.00000,  0.00000,  0.00000,  0.00000,1,1,   0.0,   1,1.0000,   0,1.0000,   0,1.0000,   0,1.0000
   27,   115,'1 ', 0.01640, 0.07410,0.01972, 157.00,   0.00,   0.00,  0.00000,  0.00000,  0.00000,  0.00000,1,1,   0.0,   1,1.0000,   0,1.0000,   0,1.0000,   0,1.0000
   28,    29,'1 ', 0.02370, 0.09430,0.02380, 157.00,   0.00,   0.00,  0.00000,  0.00000,  0.00000,  0.00000,1,1,   0.0,   1,1.0000,   0,1.0000,   0,1.0000,   0,1.0000
   29,    31,'1 ', 0.01080, 0.03310,0.00830, 157.00,   0.00,   0.00,  0.00000,  0.00000,  0.00000,  0.00000,1,1,   0.0,   1,1.0000,   0,1.0000,   0,1.0000,   0,1.0000
   30,    38,'1 ', 0.00464, 0.05400,0.42200,1084.00,   0.00,   0.00,  0.00000,  0.00000,  0.00000,  0.00000,1,1,   0.0,   1,1.0000,   0,1.0000,   0,1.0000,   0,1.0000
   31,    32,'1 ', 0.02980, 0.09850,0.02510, 157.00,   0.00,   0.00,  0.00000,  0.00000,  0.00000,  0.00000,1,1,   0.0,   1,1.0000,   0,1.0000,   0,1.0000,   0,1.0000
   32,   113,'1 ', 0.06150, 0.20300,0.05180, 157.00,   0.00,   0.00,  0.00000,  0.00000,  0.00000,  0.00000,1,1,   0.0,   1,1.0000,   0,1.0000,   0,1.0000,   0,1.0000
   32,   114,'1 ', 0.01350, 0.06120,0.01628, 157.00,   0.00,   0.00,  0.00000,  0.00000,  0.00000,  0.00000,1,1,   0.0,   1,1.0000,   0,1.0000,   0,1.0000,   0,1.0000
   33,    37,'1 ', 0.04150, 0.14200,0.03660, 157.00,   0.00,   0.00,  0.00000,  0.00000,  0.00000,  0.00000,1,1,   0.0,   1,1.0000,   0,1.0000,   0,1.0000,   0,1.0000
   34,    36,'1 ', 0.00871, 0.02680,0.00568, 157.00,   0.00,   0.00,  0.00000,  0.00000,  0.00000,  0.00000,1,1,   0.0,   1,1.0000,   0,1.0000,   0,1.0000,   0,1.0000
   34,    37,'1 ', 0.00256, 0.00940,0.00984, 157.00,   0.00,   0.00,  0.00000,  0.00000,  0.00000,  0.00000,1,1,   0.0,   1,1.0000,   0,1.0000,   0,1.0000,   0,1.0000
   34,    43,'1 ', 0.04130, 0.16810,0.04226, 157.00,   0.00,   0.00,  0.00000,  0.00000,  0.00000,  0.00000,1,1,   0.0,   1,1.0000,   0,1.0000,   0,1.0000,   0,1.0000
   35,    36,'1 ', 0.00224, 0.01020,0.00268, 157.00,   0.00,   0.00,  0.00000,  0.00000,  0.00000,  0.00000,1,1,   0.0,   1,1.0000,   0,1.0000,   0,1.0000,   0,1.0000
   35,    37,'1 ', 0.01100, 0.04970,0.01318, 157.00,   0.00,   0.00,  0.00000,  0.00000,  0.00000,  0.00000,1,1,   0.0,   1,1.0000,   0,1.0000,   0,1.0000,   0,1.0000
   37,    39,'1 ', 0.03210, 0.10600,0.02700, 157.00,   0.00,   0.00,  0.00000,  0.00000,  0.00000,  0.00000,1,1,   0.0,   1,1.0000,   0,1.0000,   0,1.0000,   0,1.0000
   37,    40,'1 ', 0.05930, 0.16800,0.04200, 157.00,   0.00,   0.00,  0.00000,  0.00000,  0.00000,  0.00000,1,1,   0.0,   1,1.0000,   0,1.0000,   0,1.0000,   0,1.0000
   38,    65,'1 ', 0.00901, 0.09860,1.04600,1084.00,   0.00,   0.00,  0.00000,  0.00000,  0.00000,  0.00000,1,1,   0.0,   1,1.0000,   0,1.0000,   0,1.0000,   0,1.0000
   39,    40,'1 ', 0.01840, 0.06050,0.01552, 157.00,   0.00,   0.00,  0.00000,  0.00000,  0.00000,  0.00000,1,1,   0.0,   1,1.0000,   0,1.0000,   0,1.0000,   0,1.0000
   40,    41,'1 ', 0.01450, 0.04870,0.01222, 157.00,   0.00,   0.00,  0.00000,  0.00000,  0.00000,  0.00000,1,1,   0.0,   1,1.0000,   0,1.0000,   0,1.0000,   0,1.0000
   40,    42,'1 ', 0.05550, 0.18300,0.04660, 157.00,   0.00,   0.00,  0.00000,  0.00000,  0.00000,  0.00000,1,1,   0.0,   1,1.0000,   0,1.0000,   0,1.0000,   0,1.0000
   41,    42,'1 ', 0.04100, 0.13500,0.03440, 157.00,   0.00,   0.00,  0.00000,  0.00000,  0.00000,  0.00000,1,1,   0.0,   1,1.0000,   0,1.0000,   0,1.0000,   0,1.0000
   42,    49,'1 ', 0.07150, 0.32300,0.08600, 157.00,   0.00,   0.00,  0.00000,  0.00000,  0.00000,  0.00000,1,1,   0.0,   1,1.0000,   0,1.0000,   0,1.0000,   0,1.0000
   42,    49,'2 ', 0.07150, 0.32300,0.08600, 157.00,   0.00,   0.00,  0.00000,  0.00000,  0.00000,  0.00000,1,1,   0.0,   1,1.0000,   0,1.0000,   0,1.0000,   0,1.0000
   43,    44,'1 ', 0.06080, 0.24540,0.06068, 157.00,   0.00,   0.00,  0.00000,  0.00000,  0.00000,  0.00000,1,1,   0.0,   1,1.0000,   0,1.0000,   0,1.0000,   0,1.0000
   44,    45,'1 ', 0.02240, 0.09010,0.02240, 157.00,   0.00,   0.00,  0.00000,  0.00000,  0.00000,  0.00000,1,1,   0.0,   1,1.0000,   0,1.0000,   0,1.0000,   0,1.0000
   45,    46,'1 ', 0.04000, 0.13560,0.03320, 157.00,   0.00,   0.00,  0.00000,  0.00000,  0.00000,  0.00000,1,1,   0.0,   1,1.0000,   0,1.0000,   0,1.0000,   0,1.0000
   45,    49,'1 ', 0.06840, 0.18600,0.04440, 157.00,   0.00,   0.00,  0.00000,  0.00000,  0.00000,  0.00000,1,1,   0.0,   1,1.0000,   0,1.0000,   0,1.0000,   0,1.0000
   46,    47,'1 ', 0.03800, 0.12700,0.03160, 157.00,   0.00,   0.00,  0.00000,  0.00000,  0.00000,  0.00000,1,1,   0.0,   1,1.0000,   0,1.0000,   0,1.0000,   0,1.0000
   46,    48,'1 ', 0.06010, 0.18900,0.04720, 157.00,   0.00,   0.00,  0.00000,  0.00000,  0.00000,  0.00000,1,1,   0.0,   1,1.0000,   0,1.0000,   0,1.0000,   0,1.0000
   47,    49,'1 ', 0.01910, 0.06250,0.01604, 157.00,   0.00,   0.00,  0.00000,  0.00000,  0.00000,  0.00000,1,1,   0.0,   1,1.0000,   0,1.0000,   0,1.0000,   0,1.0000
   47,    69,'1 ', 0.08440, 0.27780,0.07092, 157.00,   0.00,   0.00,  0.00000,  0.00000,  0.00000,  0.00000,1,1,   0.0,   1,1.0000,   0,1.0000,   0,1.0000,   0,1.0000
   48,    49,'1 ', 0.01790, 0.05050,0.01258, 157.00,   0.00,   0.00,  0.00000,  0.00000,  0.00000,  0.00000,1,1,   0.0,   1,1.0000,   0,1.0000,   0,1.0000,   0,1.0000
   49,    50,'1 ', 0.02670, 0.07520,0.01874, 157.00,   0.00,   0.00,  0.00000,  0.00000,  0.00000,  0.00000,1,1,   0.0,   1,1.0000,   0,1.0000,   0,1.0000,   0,1.0000
   49,    51,'1 ', 0.04860, 0.13700,0.03420, 157.00,   0.00,   0.00,  0.00000,  0.00000,  0.00000,  0.00000,1,1,   0.0,   1,1.0000,   0,1.0000,   0,1.0000,   0,1.0000
   49,    54,'1 ', 0.07300, 0.28900,0.07380, 157.00,   0.00,   0.00,  0.00000,  0.00000,  0.00000,  0.00000,1,1,   0.0,   1,1.0000,   0,1.0000,   0,1.0000,   0,1.0000
   49,    54,'2 ', 0.08690, 0.29100,0.07300, 157.00,   0.00,   0.00,  0.00000,  0.00000,  0.00000,  0.00000,1,1,   0.0,   1,1.0000,   0,1.0000,   0,1.0000,   0,1.0000
   49,    66,'1 ', 0.01800, 0.09190,0.02480, 157.00,   0.00,   0.00,  0.00000,  0.00000,  0.00000,  0.00000,1,1,   0.0,   1,1.0000,   0,1.0000,   0,1.0000,   0,1.0000
   49,    66,'2 ', 0.01800, 0.09190,0.02480, 157.00,   0.00,   0.00,  0.00000,  0.00000,  0.00000,  0.00000,1,1,   0.0,   1,1.0000,   0,1.0000,   0,1.0000,   0,1.0000
   49,    69,'1 ', 0.09850, 0.32400,0.08280, 157.00,   0.00,   0.00,  0.00000,  0.00000,  0.00000,  0.00000,1,1,   0.0,   1,1.0000,   0,1.0000,   0,1.0000,   0,1.0000
   50,    57,'1 ', 0.04740, 0.13400,0.03320, 157.00,   0.00,   0.00,  0.00000,  0.00000,  0.00000,  0.00000,1,1,   0.0,   1,1.0000,   0,1.0000,   0,1.0000,   0,1.0000
   51,    52,'1 ', 0.02030, 0.05880,0.01396, 157.00,   0.00,   0.00,  0.00000,  0.00000,  0.00000,  0.00000,1,1,   0.0,   1,1.0000,   0,1.0000,   0,1.0000,   0,1.0000
   51,    58,'1 ', 0.02550, 0.07190,0.01788, 157.00,   0.00,   0.00,  0.00000,  0.00000,  0.00000,  0.00000,1,1,   0.0,   1,1.0000,   0,1.0000,   0,1.0000,   0,1.0000
...